Version 4
SHEET 1 880 1480
WIRE 784 80 -864 80
WIRE 416 208 -32 208
WIRE 416 224 416 208
WIRE 48 304 -128 304
WIRE 320 304 128 304
WIRE 784 304 784 80
WIRE 784 304 512 304
WIRE 320 368 176 368
WIRE 176 384 176 368
WIRE 352 496 352 480
WIRE 624 496 352 496
WIRE 176 512 176 464
WIRE 480 512 480 480
WIRE 480 512 176 512
WIRE 784 512 784 304
WIRE 784 512 480 512
WIRE -32 528 -32 208
WIRE 416 528 -32 528
WIRE -864 544 -864 80
WIRE -800 544 -864 544
WIRE -752 544 -800 544
WIRE -480 544 -672 544
WIRE -128 544 -128 304
WIRE -128 544 -400 544
WIRE 416 544 416 528
WIRE -800 576 -800 544
WIRE 320 624 256 624
WIRE 784 624 784 512
WIRE 784 624 512 624
WIRE -128 640 -128 544
WIRE 48 640 -128 640
WIRE 256 640 256 624
WIRE 256 640 128 640
WIRE 320 688 160 688
WIRE 160 704 160 688
WIRE 160 816 160 784
WIRE 480 816 480 800
WIRE 480 816 160 816
WIRE 784 816 784 624
WIRE 784 816 480 816
WIRE 352 832 352 800
WIRE 624 832 624 496
WIRE 624 832 352 832
WIRE -32 848 -32 528
WIRE 416 848 -32 848
WIRE 416 864 416 848
WIRE 320 944 240 944
WIRE 784 944 784 816
WIRE 784 944 512 944
WIRE -128 1008 -128 640
WIRE 48 1008 -128 1008
WIRE 240 1008 240 944
WIRE 240 1008 128 1008
WIRE 320 1008 304 1008
WIRE 304 1024 304 1008
WIRE 304 1024 176 1024
WIRE 176 1056 176 1024
WIRE 480 1136 480 1120
WIRE 480 1136 176 1136
WIRE 784 1136 784 944
WIRE 784 1136 480 1136
WIRE 352 1152 352 1120
WIRE 624 1152 624 832
WIRE 624 1152 352 1152
WIRE -32 1168 -32 848
WIRE 416 1168 -32 1168
WIRE 416 1184 416 1168
WIRE -128 1248 -128 1008
WIRE 64 1248 -128 1248
WIRE 224 1248 144 1248
WIRE 224 1264 224 1248
WIRE 320 1264 224 1264
WIRE 784 1264 784 1136
WIRE 784 1264 512 1264
WIRE 320 1328 176 1328
WIRE -32 1360 -32 1168
WIRE 176 1360 176 1328
WIRE 624 1360 624 1152
WIRE 624 1360 544 1360
WIRE 352 1456 352 1440
WIRE 544 1456 544 1360
WIRE 544 1456 352 1456
WIRE -32 1472 -32 1440
WIRE 176 1472 176 1440
WIRE 176 1472 -32 1472
WIRE 480 1472 480 1440
WIRE 480 1472 176 1472
WIRE 624 1472 624 1440
WIRE 624 1472 480 1472
WIRE 784 1472 784 1264
WIRE 784 1472 624 1472
FLAG -800 576 0
SYMBOL Switches/ADG612 416 352 R0
SYMATTR InstName U1
SYMBOL Switches/ADG612 416 672 R0
SYMATTR InstName U2
SYMBOL res -384 528 R90
WINDOW 0 0 56 VBottom 2
WINDOW 3 32 56 VTop 2
SYMATTR InstName R2
SYMATTR Value 5000000
SYMBOL res 144 288 R90
WINDOW 0 0 56 VBottom 2
WINDOW 3 32 56 VTop 2
SYMATTR InstName R3
SYMATTR Value 1000000
SYMBOL res 144 624 R90
WINDOW 0 0 56 VBottom 2
WINDOW 3 32 56 VTop 2
SYMATTR InstName R4
SYMATTR Value 2000000
SYMBOL res 144 992 R90
WINDOW 0 0 56 VBottom 2
WINDOW 3 32 56 VTop 2
SYMATTR InstName R5
SYMATTR Value 3000000
SYMBOL res 160 1232 R90
WINDOW 0 0 56 VBottom 2
WINDOW 3 32 56 VTop 2
SYMATTR InstName R6
SYMATTR Value 4000000
SYMBOL voltage -656 544 R90
WINDOW 0 -32 56 VBottom 2
WINDOW 3 32 56 VTop 2
SYMATTR InstName V1
SYMATTR Value 0.2
SYMBOL Switches/ADG612 416 992 R0
SYMATTR InstName U3
SYMBOL Switches/ADG612 416 1312 R0
SYMATTR InstName U4
SYMBOL voltage 176 368 R0
SYMATTR InstName V2
SYMATTR Value PULSE(0 5 0.001 0.00001 0.00001 0.001 0.002 1000)
SYMBOL voltage 160 688 R0
SYMATTR InstName V3
SYMATTR Value PULSE(0 5 0.001 0.00001 0.00001 0.002 0.004 5000)
SYMBOL voltage 176 1040 R0
SYMATTR InstName V4
SYMATTR Value PULSE(0 5 0.001 0.00001 0.00001 0.004 0.008 2500)
SYMBOL voltage 176 1344 R0
SYMATTR InstName V5
SYMATTR Value PULSE(0 5 0.001 0.00001 0.00001 0.008 0.016 1250)
SYMBOL voltage -32 1344 R0
SYMATTR InstName V6
SYMATTR Value 5
SYMBOL voltage 624 1456 R180
WINDOW 0 24 96 Left 2
WINDOW 3 24 16 Left 2
SYMATTR InstName V7
SYMATTR Value 5
TEXT -616 648 Right 2 !.tran 17m
